[General]
# General configuration
network = Ring6
sim-time-limit = 3*48*16.384us
# Network bitrate
**.eth[*].bitrate = 1000Mbps

# ---- NETWORK CONFIGURATION ----
# Number of runs
repeat = 1 + 200
*.repetition = ${repetition}

# Configuration for device mac address
*.de0.eth[0].address = "00-00-00-00-00-01"
*.de1.eth[0].address = "00-00-00-00-00-02"
*.de2.eth[0].address = "00-00-00-00-00-03"
*.de3.eth[0].address = "00-00-00-00-00-04"
*.de4.eth[0].address = "00-00-00-00-00-05"
*.de5.eth[0].address = "00-00-00-00-00-06"

# Configuration for error generation
# Probability for: short gate; late gate; early gate; queue disorder; packet delay; packet loss
*.errorProb = [5, 15, 15, 5, 55, 5]
*.queueErrorMaxQuery = 3
*.packetLossErrorMaxQuery = 40

# Configuration for switch gates
# gcl at sw0, port0
*.sw0.eth[0].macLayer.queue.transmissionGate[0].offset = 0 * 16.384us
*.sw0.eth[0].macLayer.queue.transmissionGate[0].durations = [2 * 16.384us, 4 * 16.384us, 1 * 16.384us, 16 * 16.384us, 1 * 16.384us, 11 * 16.384us, 1 * 16.384us, 12 * 16.384us]
*.sw0.eth[0].hasTas = true
# gcl at sw0, port1
*.sw0.eth[1].macLayer.queue.transmissionGate[0].offset = 47 * 16.384us
*.sw0.eth[1].macLayer.queue.transmissionGate[0].durations = [1 * 16.384us, 20 * 16.384us, 1 * 16.384us, 3 * 16.384us, 1 * 16.384us, 6 * 16.384us, 1 * 16.384us, 2 * 16.384us, 1 * 16.384us, 8 * 16.384us, 1 * 16.384us, 3 * 16.384us]
*.sw0.eth[1].hasTas = true
# gcl at sw0, port2
*.sw0.eth[2].macLayer.queue.transmissionGate[0].offset = 0 * 16.384us
*.sw0.eth[2].macLayer.queue.transmissionGate[0].durations = [1 * 16.384us, 4 * 16.384us, 1 * 16.384us, 2 * 16.384us, 1 * 16.384us, 34 * 16.384us, 1 * 16.384us, 4 * 16.384us]
*.sw0.eth[2].hasTas = true
# gcl at sw1, port0
*.sw1.eth[0].macLayer.queue.transmissionGate[0].offset = 46 * 16.384us
*.sw1.eth[0].macLayer.queue.transmissionGate[0].durations = [1 * 16.384us, 27 * 16.384us, 1 * 16.384us, 3 * 16.384us, 1 * 16.384us, 2 * 16.384us, 1 * 16.384us, 8 * 16.384us, 1 * 16.384us, 3 * 16.384us]
*.sw1.eth[0].hasTas = true
# gcl at sw1, port2
*.sw1.eth[2].macLayer.queue.transmissionGate[0].offset = 47 * 16.384us
*.sw1.eth[2].macLayer.queue.transmissionGate[0].durations = [2 * 16.384us, 3 * 16.384us, 2 * 16.384us, 36 * 16.384us, 1 * 16.384us, 4 * 16.384us]
*.sw1.eth[2].hasTas = true
# gcl at sw1, port1
*.sw1.eth[1].macLayer.queue.transmissionGate[0].offset = 31 * 16.384us
*.sw1.eth[1].macLayer.queue.transmissionGate[0].durations = [1 * 16.384us, 5 * 16.384us, 1 * 16.384us, 2 * 16.384us, 2 * 16.384us, 5 * 16.384us, 2 * 16.384us, 30 * 16.384us]
*.sw1.eth[1].hasTas = true
# gcl at sw2, port0
*.sw2.eth[0].macLayer.queue.transmissionGate[0].offset = 0 * 16.384us
*.sw2.eth[0].macLayer.queue.transmissionGate[0].durations = [1 * 16.384us, 17 * 16.384us, 1 * 16.384us, 3 * 16.384us, 1 * 16.384us, 1 * 16.384us, 1 * 16.384us, 10 * 16.384us, 1 * 16.384us, 12 * 16.384us]
*.sw2.eth[0].hasTas = true
# gcl at sw2, port2
*.sw2.eth[2].macLayer.queue.transmissionGate[0].offset = 45 * 16.384us
*.sw2.eth[2].macLayer.queue.transmissionGate[0].durations = [2 * 16.384us, 24 * 16.384us, 1 * 16.384us, 3 * 16.384us, 1 * 16.384us, 13 * 16.384us, 1 * 16.384us, 3 * 16.384us]
*.sw2.eth[2].hasTas = true
# gcl at sw2, port1
*.sw2.eth[1].macLayer.queue.transmissionGate[0].offset = 31 * 16.384us
*.sw2.eth[1].macLayer.queue.transmissionGate[0].durations = [1 * 16.384us, 9 * 16.384us, 2 * 16.384us, 4 * 16.384us, 2 * 16.384us, 30 * 16.384us]
*.sw2.eth[1].hasTas = true
# gcl at sw3, port0
*.sw3.eth[0].macLayer.queue.transmissionGate[0].offset = 30 * 16.384us
*.sw3.eth[0].macLayer.queue.transmissionGate[0].durations = [1 * 16.384us, 3 * 16.384us, 1 * 16.384us, 5 * 16.384us, 3 * 16.384us, 35 * 16.384us]
*.sw3.eth[0].hasTas = true
# gcl at sw3, port2
*.sw3.eth[2].macLayer.queue.transmissionGate[0].offset = 45 * 16.384us
*.sw3.eth[2].macLayer.queue.transmissionGate[0].durations = [1 * 16.384us, 17 * 16.384us, 1 * 16.384us, 10 * 16.384us, 1 * 16.384us, 14 * 16.384us, 1 * 16.384us, 3 * 16.384us]
*.sw3.eth[2].hasTas = true
# gcl at sw3, port1
*.sw3.eth[1].macLayer.queue.transmissionGate[0].offset = 0 * 16.384us
*.sw3.eth[1].macLayer.queue.transmissionGate[0].durations = [1 * 16.384us, 33 * 16.384us, 2 * 16.384us, 10 * 16.384us, 1 * 16.384us, 1 * 16.384us]
*.sw3.eth[1].hasTas = true
# gcl at sw4, port0
*.sw4.eth[0].macLayer.queue.transmissionGate[0].offset = 47 * 16.384us
*.sw4.eth[0].macLayer.queue.transmissionGate[0].durations = [1 * 16.384us, 8 * 16.384us, 1 * 16.384us, 14 * 16.384us, 1 * 16.384us, 9 * 16.384us, 2 * 16.384us, 12 * 16.384us]
*.sw4.eth[0].hasTas = true
# gcl at sw4, port2
*.sw4.eth[2].macLayer.queue.transmissionGate[0].offset = 28 * 16.384us
*.sw4.eth[2].macLayer.queue.transmissionGate[0].durations = [2 * 16.384us, 7 * 16.384us, 1 * 16.384us, 38 * 16.384us]
*.sw4.eth[2].hasTas = true
# gcl at sw4, port1
*.sw4.eth[1].macLayer.queue.transmissionGate[0].offset = 31 * 16.384us
*.sw4.eth[1].macLayer.queue.transmissionGate[0].durations = [1 * 16.384us, 15 * 16.384us, 1 * 16.384us, 9 * 16.384us, 1 * 16.384us, 3 * 16.384us, 1 * 16.384us, 17 * 16.384us]
*.sw4.eth[1].hasTas = true
# gcl at sw5, port0
*.sw5.eth[0].macLayer.queue.transmissionGate[0].offset = 0 * 16.384us
*.sw5.eth[0].macLayer.queue.transmissionGate[0].durations = [2 * 16.384us, 4 * 16.384us, 1 * 16.384us, 11 * 16.384us, 1 * 16.384us, 25 * 16.384us, 1 * 16.384us, 3 * 16.384us]
*.sw5.eth[0].hasTas = true
# gcl at sw5, port2
*.sw5.eth[2].macLayer.queue.transmissionGate[0].offset = 39 * 16.384us
*.sw5.eth[2].macLayer.queue.transmissionGate[0].durations = [1 * 16.384us, 10 * 16.384us, 1 * 16.384us, 3 * 16.384us, 1 * 16.384us, 32 * 16.384us]
*.sw5.eth[2].hasTas = true
# gcl at sw5, port1
*.sw5.eth[1].macLayer.queue.transmissionGate[0].offset = 27 * 16.384us
*.sw5.eth[1].macLayer.queue.transmissionGate[0].durations = [2 * 16.384us, 11 * 16.384us, 2 * 16.384us, 8 * 16.384us, 1 * 16.384us, 24 * 16.384us]
*.sw5.eth[1].hasTas = true

# Configuration for switch forwarding latency
*.sw*.eth[*].typename = "DelayedLayeredEthernetInterface"
*.sw*.eth[*].processingTime = 2us

# Configuration for flows
*.de0.numApps = 10
*.de1.numApps = 10
*.de2.numApps = 10
*.de3.numApps = 10
*.de4.numApps = 10
*.de5.numApps = 10
# Install LogUdpSourceApp on de4 and UdpSinkApp on de3, #flow0
*.de4.app[0].typename = "LogUdpSourceApp"
*.de4.app[0].display-name = "flow0_4to3"
*.de4.app[0].flowId = 0
*.de4.app[0].io.destAddress = "de3"
*.de4.app[0].io.destPort = 1000
*.de4.app[0].source.initialProductionOffset = 28 * 16.384us
*.de3.app[0].typename = "UdpSinkApp"
*.de3.app[0].io.localPort = 1000
# Install LogUdpSourceApp on de4 and UdpSinkApp on de2, #flow1
*.de4.app[1].typename = "LogUdpSourceApp"
*.de4.app[1].display-name = "flow1_4to2"
*.de4.app[1].flowId = 1
*.de4.app[1].io.destAddress = "de2"
*.de4.app[1].io.destPort = 1000
*.de4.app[1].source.initialProductionOffset = 19 * 16.384us
*.de2.app[0].typename = "UdpSinkApp"
*.de2.app[0].io.localPort = 1000
# Install LogUdpSourceApp on de4 and UdpSinkApp on de5, #flow2
*.de4.app[2].typename = "LogUdpSourceApp"
*.de4.app[2].display-name = "flow2_4to5"
*.de4.app[2].flowId = 2
*.de4.app[2].io.destAddress = "de5"
*.de4.app[2].io.destPort = 1000
*.de4.app[2].source.initialProductionOffset = 16 * 16.384us
*.de5.app[0].typename = "UdpSinkApp"
*.de5.app[0].io.localPort = 1000
# Install LogUdpSourceApp on de3 and UdpSinkApp on de5, #flow3
*.de3.app[1].typename = "LogUdpSourceApp"
*.de3.app[1].display-name = "flow3_3to5"
*.de3.app[1].flowId = 3
*.de3.app[1].io.destAddress = "de5"
*.de3.app[1].io.destPort = 1001
*.de3.app[1].source.initialProductionOffset = 45 * 16.384us
*.de5.app[1].typename = "UdpSinkApp"
*.de5.app[1].io.localPort = 1001
# Install LogUdpSourceApp on de5 and UdpSinkApp on de0, #flow4
*.de5.app[2].typename = "LogUdpSourceApp"
*.de5.app[2].display-name = "flow4_5to0"
*.de5.app[2].flowId = 4
*.de5.app[2].io.destAddress = "de0"
*.de5.app[2].io.destPort = 1000
*.de5.app[2].source.initialProductionOffset = 21 * 16.384us
*.de0.app[0].typename = "UdpSinkApp"
*.de0.app[0].io.localPort = 1000
# Install LogUdpSourceApp on de2 and UdpSinkApp on de1, #flow5
*.de2.app[1].typename = "LogUdpSourceApp"
*.de2.app[1].display-name = "flow5_2to1"
*.de2.app[1].flowId = 5
*.de2.app[1].io.destAddress = "de1"
*.de2.app[1].io.destPort = 1000
*.de2.app[1].source.initialProductionOffset = 28 * 16.384us
*.de1.app[0].typename = "UdpSinkApp"
*.de1.app[0].io.localPort = 1000
# Install LogUdpSourceApp on de0 and UdpSinkApp on de2, #flow6
*.de0.app[1].typename = "LogUdpSourceApp"
*.de0.app[1].display-name = "flow6_0to2"
*.de0.app[1].flowId = 6
*.de0.app[1].io.destAddress = "de2"
*.de0.app[1].io.destPort = 1001
*.de0.app[1].source.initialProductionOffset = 32 * 16.384us
*.de2.app[2].typename = "UdpSinkApp"
*.de2.app[2].io.localPort = 1001
# Install LogUdpSourceApp on de2 and UdpSinkApp on de3, #flow7
*.de2.app[3].typename = "LogUdpSourceApp"
*.de2.app[3].display-name = "flow7_2to3"
*.de2.app[3].flowId = 7
*.de2.app[3].io.destAddress = "de3"
*.de2.app[3].io.destPort = 1001
*.de2.app[3].source.initialProductionOffset = 16 * 16.384us
*.de3.app[2].typename = "UdpSinkApp"
*.de3.app[2].io.localPort = 1001
# Install LogUdpSourceApp on de5 and UdpSinkApp on de1, #flow8
*.de5.app[3].typename = "LogUdpSourceApp"
*.de5.app[3].display-name = "flow8_5to1"
*.de5.app[3].flowId = 8
*.de5.app[3].io.destAddress = "de1"
*.de5.app[3].io.destPort = 1001
*.de5.app[3].source.initialProductionOffset = 34 * 16.384us
*.de1.app[1].typename = "UdpSinkApp"
*.de1.app[1].io.localPort = 1001
# Install LogUdpSourceApp on de3 and UdpSinkApp on de2, #flow9
*.de3.app[3].typename = "LogUdpSourceApp"
*.de3.app[3].display-name = "flow9_3to2"
*.de3.app[3].flowId = 9
*.de3.app[3].io.destAddress = "de2"
*.de3.app[3].io.destPort = 1002
*.de3.app[3].source.initialProductionOffset = 46 * 16.384us
*.de2.app[4].typename = "UdpSinkApp"
*.de2.app[4].io.localPort = 1002
# Install LogUdpSourceApp on de5 and UdpSinkApp on de3, #flow10
*.de5.app[4].typename = "LogUdpSourceApp"
*.de5.app[4].display-name = "flow10_5to3"
*.de5.app[4].flowId = 10
*.de5.app[4].io.destAddress = "de3"
*.de5.app[4].io.destPort = 1002
*.de5.app[4].source.initialProductionOffset = 19 * 16.384us
*.de3.app[4].typename = "UdpSinkApp"
*.de3.app[4].io.localPort = 1002
# Install LogUdpSourceApp on de3 and UdpSinkApp on de1, #flow11
*.de3.app[5].typename = "LogUdpSourceApp"
*.de3.app[5].display-name = "flow11_3to1"
*.de3.app[5].flowId = 11
*.de3.app[5].io.destAddress = "de1"
*.de3.app[5].io.destPort = 1002
*.de3.app[5].source.initialProductionOffset = 31 * 16.384us
*.de1.app[2].typename = "UdpSinkApp"
*.de1.app[2].io.localPort = 1002
# Install LogUdpSourceApp on de4 and UdpSinkApp on de0, #flow12
*.de4.app[3].typename = "LogUdpSourceApp"
*.de4.app[3].display-name = "flow12_4to0"
*.de4.app[3].flowId = 12
*.de4.app[3].io.destAddress = "de0"
*.de4.app[3].io.destPort = 1001
*.de4.app[3].source.initialProductionOffset = 32 * 16.384us
*.de0.app[2].typename = "UdpSinkApp"
*.de0.app[2].io.localPort = 1001
# Install LogUdpSourceApp on de3 and UdpSinkApp on de0, #flow13
*.de3.app[6].typename = "LogUdpSourceApp"
*.de3.app[6].display-name = "flow13_3to0"
*.de3.app[6].flowId = 13
*.de3.app[6].io.destAddress = "de0"
*.de3.app[6].io.destPort = 1002
*.de3.app[6].source.initialProductionOffset = 2 * 16.384us
*.de0.app[3].typename = "UdpSinkApp"
*.de0.app[3].io.localPort = 1002
# Install LogUdpSourceApp on de0 and UdpSinkApp on de3, #flow14
*.de0.app[4].typename = "LogUdpSourceApp"
*.de0.app[4].display-name = "flow14_0to3"
*.de0.app[4].flowId = 14
*.de0.app[4].io.destAddress = "de3"
*.de0.app[4].io.destPort = 1003
*.de0.app[4].source.initialProductionOffset = 25 * 16.384us
*.de3.app[7].typename = "UdpSinkApp"
*.de3.app[7].io.localPort = 1003
# Install LogUdpSourceApp on de1 and UdpSinkApp on de2, #flow15
*.de1.app[3].typename = "LogUdpSourceApp"
*.de1.app[3].display-name = "flow15_1to2"
*.de1.app[3].flowId = 15
*.de1.app[3].io.destAddress = "de2"
*.de1.app[3].io.destPort = 1003
*.de1.app[3].source.initialProductionOffset = 16 * 16.384us
*.de2.app[5].typename = "UdpSinkApp"
*.de2.app[5].io.localPort = 1003
# Install LogUdpSourceApp on de3 and UdpSinkApp on de4, #flow16
*.de3.app[8].typename = "LogUdpSourceApp"
*.de3.app[8].display-name = "flow16_3to4"
*.de3.app[8].flowId = 16
*.de3.app[8].io.destAddress = "de4"
*.de3.app[8].io.destPort = 1000
*.de3.app[8].source.initialProductionOffset = 47 * 16.384us
*.de4.app[4].typename = "UdpSinkApp"
*.de4.app[4].io.localPort = 1000
# Install LogUdpSourceApp on de1 and UdpSinkApp on de4, #flow17
*.de1.app[4].typename = "LogUdpSourceApp"
*.de1.app[4].display-name = "flow17_1to4"
*.de1.app[4].flowId = 17
*.de1.app[4].io.destAddress = "de4"
*.de1.app[4].io.destPort = 1001
*.de1.app[4].source.initialProductionOffset = 32 * 16.384us
*.de4.app[5].typename = "UdpSinkApp"
*.de4.app[5].io.localPort = 1001
# Install LogUdpSourceApp on de1 and UdpSinkApp on de3, #flow18
*.de1.app[5].typename = "LogUdpSourceApp"
*.de1.app[5].display-name = "flow18_1to3"
*.de1.app[5].flowId = 18
*.de1.app[5].io.destAddress = "de3"
*.de1.app[5].io.destPort = 1004
*.de1.app[5].source.initialProductionOffset = 25 * 16.384us
*.de3.app[9].typename = "UdpSinkApp"
*.de3.app[9].io.localPort = 1004
# Install LogUdpSourceApp on de2 and UdpSinkApp on de0, #flow19
*.de2.app[6].typename = "LogUdpSourceApp"
*.de2.app[6].display-name = "flow19_2to0"
*.de2.app[6].flowId = 19
*.de2.app[6].io.destAddress = "de0"
*.de2.app[6].io.destPort = 1003
*.de2.app[6].source.initialProductionOffset = 46 * 16.384us
*.de0.app[5].typename = "UdpSinkApp"
*.de0.app[5].io.localPort = 1003
# Install LogUdpSourceApp on de0 and UdpSinkApp on de4, #flow20
*.de0.app[6].typename = "LogUdpSourceApp"
*.de0.app[6].display-name = "flow20_0to4"
*.de0.app[6].flowId = 20
*.de0.app[6].io.destAddress = "de4"
*.de0.app[6].io.destPort = 1002
*.de0.app[6].source.initialProductionOffset = 7 * 16.384us
*.de4.app[6].typename = "UdpSinkApp"
*.de4.app[6].io.localPort = 1002
# Install LogUdpSourceApp on de2 and UdpSinkApp on de5, #flow21
*.de2.app[7].typename = "LogUdpSourceApp"
*.de2.app[7].display-name = "flow21_2to5"
*.de2.app[7].flowId = 21
*.de2.app[7].io.destAddress = "de5"
*.de2.app[7].io.destPort = 1002
*.de2.app[7].source.initialProductionOffset = 2 * 16.384us
*.de5.app[5].typename = "UdpSinkApp"
*.de5.app[5].io.localPort = 1002
# Install LogUdpSourceApp on de4 and UdpSinkApp on de1, #flow22
*.de4.app[7].typename = "LogUdpSourceApp"
*.de4.app[7].display-name = "flow22_4to1"
*.de4.app[7].flowId = 22
*.de4.app[7].io.destAddress = "de1"
*.de4.app[7].io.destPort = 1003
*.de4.app[7].source.initialProductionOffset = 42 * 16.384us
*.de1.app[6].typename = "UdpSinkApp"
*.de1.app[6].io.localPort = 1003
# Install LogUdpSourceApp on de1 and UdpSinkApp on de5, #flow23
*.de1.app[7].typename = "LogUdpSourceApp"
*.de1.app[7].display-name = "flow23_1to5"
*.de1.app[7].flowId = 23
*.de1.app[7].io.destAddress = "de5"
*.de1.app[7].io.destPort = 1003
*.de1.app[7].source.initialProductionOffset = 41 * 16.384us
*.de5.app[6].typename = "UdpSinkApp"
*.de5.app[6].io.localPort = 1003
# Install LogUdpSourceApp on de0 and UdpSinkApp on de5, #flow24
*.de0.app[7].typename = "LogUdpSourceApp"
*.de0.app[7].display-name = "flow24_0to5"
*.de0.app[7].flowId = 24
*.de0.app[7].io.destAddress = "de5"
*.de0.app[7].io.destPort = 1004
*.de0.app[7].source.initialProductionOffset = 47 * 16.384us
*.de5.app[7].typename = "UdpSinkApp"
*.de5.app[7].io.localPort = 1004
# Install LogUdpSourceApp on de0 and UdpSinkApp on de1, #flow25
*.de0.app[8].typename = "LogUdpSourceApp"
*.de0.app[8].display-name = "flow25_0to1"
*.de0.app[8].flowId = 25
*.de0.app[8].io.destAddress = "de1"
*.de0.app[8].io.destPort = 1004
*.de0.app[8].source.initialProductionOffset = 0 * 16.384us
*.de1.app[8].typename = "UdpSinkApp"
*.de1.app[8].io.localPort = 1004
# Install LogUdpSourceApp on de1 and UdpSinkApp on de0, #flow26
*.de1.app[9].typename = "LogUdpSourceApp"
*.de1.app[9].display-name = "flow26_1to0"
*.de1.app[9].flowId = 26
*.de1.app[9].io.destAddress = "de0"
*.de1.app[9].io.destPort = 1004
*.de1.app[9].source.initialProductionOffset = 46 * 16.384us
*.de0.app[9].typename = "UdpSinkApp"
*.de0.app[9].io.localPort = 1004
# Install LogUdpSourceApp on de2 and UdpSinkApp on de4, #flow27
*.de2.app[8].typename = "LogUdpSourceApp"
*.de2.app[8].display-name = "flow27_2to4"
*.de2.app[8].flowId = 27
*.de2.app[8].io.destAddress = "de4"
*.de2.app[8].io.destPort = 1003
*.de2.app[8].source.initialProductionOffset = 32 * 16.384us
*.de4.app[8].typename = "UdpSinkApp"
*.de4.app[8].io.localPort = 1003
# Install LogUdpSourceApp on de5 and UdpSinkApp on de2, #flow28
*.de5.app[8].typename = "LogUdpSourceApp"
*.de5.app[8].display-name = "flow28_5to2"
*.de5.app[8].flowId = 28
*.de5.app[8].io.destAddress = "de2"
*.de5.app[8].io.destPort = 1004
*.de5.app[8].source.initialProductionOffset = 20 * 16.384us
*.de2.app[9].typename = "UdpSinkApp"
*.de2.app[9].io.localPort = 1004
# Install LogUdpSourceApp on de5 and UdpSinkApp on de4, #flow29
*.de5.app[9].typename = "LogUdpSourceApp"
*.de5.app[9].display-name = "flow29_5to4"
*.de5.app[9].flowId = 29
*.de5.app[9].io.destAddress = "de4"
*.de5.app[9].io.destPort = 1004
*.de5.app[9].source.initialProductionOffset = 23 * 16.384us
*.de4.app[9].typename = "UdpSinkApp"
*.de4.app[9].io.localPort = 1004

# Configuration for flow packets
*.de*.app[*].source.packetLength = 1500B - 54B
*.de*.app[*].source.productionInterval = 48 * 16.384us

# Install loggers on each device
*.de*.eth[*].phyLayer.receiver.typename = "LogPacketReceiver"
*.de*.eth[*].phyLayer.transmitter.typename = "LogPacketTransmitter"

# Install loggers on each switch
*.sw*.hasEgressTrafficShaping = true
*.sw*.eth[*].macLayer.queue.numTrafficClasses = 1
*.sw*.eth[*].phyLayer.receiver.typename = "FlawedPacketReceiver"
*.sw*.eth[*].phyLayer.transmitter.typename = "FlawedPacketTransmitter"
# Install flawed queue on each gate
*.sw*.eth[*].macLayer.queue.queue[*].typename = "FlawedPacketQueue"

*.macForwardingTableConfigurator.typename = ""
*.sw0.macTable.forwardingTable = [{address: "de0", interface: "eth0"},
                                  {address: "de1", interface: "eth1"},
                                  {address: "de2", interface: "eth1"},
                                  {address: "de3", interface: "eth1"},
                                  {address: "de4", interface: "eth2"},
                                  {address: "de5", interface: "eth2"}]
*.sw1.macTable.forwardingTable = [{address: "de0", interface: "eth2"},
                                  {address: "de1", interface: "eth0"},
                                  {address: "de2", interface: "eth1"},
                                  {address: "de3", interface: "eth1"},
                                  {address: "de4", interface: "eth1"},
                                  {address: "de5", interface: "eth2"}]
*.sw2.macTable.forwardingTable = [{address: "de0", interface: "eth2"},
                                  {address: "de1", interface: "eth2"},
                                  {address: "de2", interface: "eth0"},
                                  {address: "de3", interface: "eth1"},
                                  {address: "de4", interface: "eth1"},
                                  {address: "de5", interface: "eth2"}]
*.sw3.macTable.forwardingTable = [{address: "de0", interface: "eth2"},
                                  {address: "de1", interface: "eth2"},
                                  {address: "de2", interface: "eth2"},
                                  {address: "de3", interface: "eth0"},
                                  {address: "de4", interface: "eth1"},
                                  {address: "de5", interface: "eth1"}]
*.sw4.macTable.forwardingTable = [{address: "de0", interface: "eth1"},
                                  {address: "de1", interface: "eth1"},
                                  {address: "de2", interface: "eth2"},
                                  {address: "de3", interface: "eth2"},
                                  {address: "de4", interface: "eth0"},
                                  {address: "de5", interface: "eth1"}]
*.sw5.macTable.forwardingTable = [{address: "de0", interface: "eth1"},
                                  {address: "de1", interface: "eth1"},
                                  {address: "de2", interface: "eth1"},
                                  {address: "de3", interface: "eth2"},
                                  {address: "de4", interface: "eth2"},
                                  {address: "de5", interface: "eth0"}]

# ---- END OF NETWORK CONFIGURATION ----
# Visualization configuration
**.displayGateSchedules = true

# Output configuration
cmdenv-express-mode = false
cmdenv-event-banners = false
**.cmdenv-log-level = "WARN"

cmdenv-log-prefix = ""
cmdenv-redirect-output = true
cmdenv-output-file = "../log/${network}/flow30/log_raw/log_${runnumber}.txt"

**.vector-recording = false
**.scalar-recording = false

